!----------------------------------------------------------------------------------
! Users should add all user specific namelist changes below in the form of 
! namelist_var = new_namelist_value 
! NOTE: namelist variable coupling_period CAN ONLY be changed by modifying the value
!       of the xml variable ROF_NCPL in env_run.xml
! NOTE: if the xml variable ROF GRID in env_build.xml is set to 'null', then
!        the RTM build-namelist will set do_rtm to .false. - and will ignore 
!        any change below
!----------------------------------------------------------------------------------

!----------------------------------------------------------------------------------
! set the frequency of output file writes
!   - a positive integer means to write a file after that many time-steps
!     - i.e., 24 means every 24 time-steps
!   - a negative integer means to write a file after that many hours
!     - i.e., -24 means every day
!   - 0 means to write a file after each month
!----------------------------------------------------------------------------------
rtmhist_nhtfrq = 0

!----------------------------------------------------------------------------------
! toggle the water resources management feature [.true. / .false]
!----------------------------------------------------------------------------------
wrmflag = .true.

!----------------------------------------------------------------------------------
! toggle whether the external demand comes from the demand file or from ELM [ 1 / 0 ]
!----------------------------------------------------------------------------------
externaldemandflag = 1

!----------------------------------------------------------------------------------
! set the path and prefix for the demand data
!----------------------------------------------------------------------------------
demandpath = '/pic/projects/im3/iwmm/input_data/demand/GCAM_waterdemand_nc/rcp8.5/RCP8.5_GCAM_water_demand_'

!----------------------------------------------------------------------------------
! set the demand type, corresponding to the variable in the demand files [totalDemand / consDemand / etc. ]
!----------------------------------------------------------------------------------
demandvariablename = 'totalDemand'

!----------------------------------------------------------------------------------
! set the path to a file defining the reservoir parameters
!----------------------------------------------------------------------------------
parafile = '/pic/projects/im3/iwmm/input_data/runoff/US_reservoir_8th_NLDAS3_updated_CERF_Livneh_naturalflow.nc'
