!----------------------------------------------------------------------------------
! Users should add all user specific namelist changes below in the form of 
! namelist_var = new_namelist_value 
! NOTE: namelist variable coupling_period CAN ONLY be changed by modifying the value
!       of the xml variable ROF_NCPL in env_run.xml
! NOTE: if the xml variable ROF GRID in env_build.xml is set to 'null', then
!        the RTM build-namelist will set do_rtm to .false. - and will ignore 
!        any change below
!----------------------------------------------------------------------------------

!----------------------------------------------------------------------------------
! See http://www.cesm.ucar.edu/models/cesm1.2/cesm/doc/modelnl/nl_rtm.html for
! additional documentation on available settings.
!----------------------------------------------------------------------------------

!----------------------------------------------------------------------------------
! set the frequency of output file writes
!   - a positive integer means write to file after that many time-steps
!     - i.e., a value of 24 writes to file every 24 time-steps
!   - a negative integer means write to file after that many hours
!     - i.e., a value of -24 writes to file each day
!   - 0, the default, means write to file each month
!   - regardless, a new file is still written only once every 30 days,
!     controlled by the parameter `rtmhist_mfilt = 30`
!----------------------------------------------------------------------------------
rtmhist_nhtfrq = 0
rtmhist_mfilt = 30

!----------------------------------------------------------------------------------
! toggle the water resources management feature [.true. / .false]
!----------------------------------------------------------------------------------
wrmflag = .true.

!----------------------------------------------------------------------------------
! toggle whether the external demand comes from the demand file or from ELM [ 1 / 0 ]
!----------------------------------------------------------------------------------
externaldemandflag = 1

!----------------------------------------------------------------------------------
! toggle the types of demand read from files:
!   - TotalDemandFlag: if set to 1, differentiate between irrigation and non-irrigation demand
!   - GroundwaterFlag: if set to 1, TODO
!   - ReturnFlowFlag:  if set to 1, differentiate between consumptive use and withdrawal
! if any of these flags are 1, demand will be read from files with the following suffixes:
!   - TotalDemand: _ConNonIrrig, or if ReturnFlowFlag = 1, _WithNonIrrig
!   - Groundwater: _gw_irr, and if TotalDemandFlag = 1, _gw_nonirr
!   - ReturnFlow:  _WithIrrig if ReturnFlowFlag = 1, else _ConIrrig
!----------------------------------------------------------------------------------
TotalDemandFlag = 0
GroundwaterFlag = 0
ReturnFlowFlag = 0

!----------------------------------------------------------------------------------
! set the path and prefix for the demand data
!----------------------------------------------------------------------------------
demandpath = '/pic/projects/im3/iwmm/input_data/demand/GCAM_waterdemand_nc/rcp8.5/RCP8.5_GCAM_water_demand_'

!----------------------------------------------------------------------------------
! set the demand type, corresponding to the variable in the demand files [totalDemand / consDemand / etc. ]
! if reading from multiple types of demand files, this should be the same for all files
!----------------------------------------------------------------------------------
demandvariablename = 'totalDemand'

!----------------------------------------------------------------------------------
! set the path to a file defining the reservoir parameters
!----------------------------------------------------------------------------------
parafile = '/pic/projects/im3/iwmm/input_data/runoff/US_reservoir_8th_NLDAS3_updated_CERF_Livneh_naturalflow.nc'
